/*--------------------------------*- C++ -*----------------------------------*\
| =========                 |                                                 |
| \\      /  F ield         | OpenFOAM: The Open Source CFD Toolbox           |
|  \\    /   O peration     | Version:  plus                                  |
|   \\  /    A nd           | Web:      www.OpenFOAM.com                      |
|    \\/     M anipulation  |                                                 |
\*---------------------------------------------------------------------------*/
FoamFile
{
    version     2.0;
    format      ascii;
    class       dictionary;
    object      createBafflesDict;
}
// * * * * * * * * * * * * * * * * * * * * * * * * * * * * * * * * * * * * * //

internalFacesOnly true;

fields true;

// Baffles to create.
baffles
{
    
       baffleFaces
       {
        type        faceZone;
        zoneName    flux;

        patches
        {
            master
            {
                name 		flux;
    		type		patch;
	        patchFields
	      {
                #include "./0/include/flux"
		     
              } 
	    }
            slave { $ {..master}}
                    
	 }
         
	 
        }
       }

}


// ************************************************************************* //
